REMARK  8 active torsions:
REMARK  status: ('A' for Active; 'I' for Inactive)
REMARK    1  A    between atoms: O_3  and  C_18 
REMARK    2  A    between atoms: N_5  and  C_16 
REMARK    3  A    between atoms: N_6  and  C_17 
REMARK    4  A    between atoms: N_9  and  C_20 
REMARK    5  A    between atoms: N_9  and  C_23 
REMARK    6  A    between atoms: N_11  and  C_25 
REMARK       I    between atoms: N_11  and  C_28 
REMARK    7  A    between atoms: C_16  and  C_18 
REMARK    8  A    between atoms: C_24  and  C_28 
ROOT
HETATM    1  N   UNL     1      -0.504  -0.532   0.268  1.00  0.00    -0.320 N 
HETATM    2  H   UNL     1      -0.778  -1.506   0.379  1.00  0.00     0.169 HD
ENDROOT
BRANCH   1   3
HETATM    3  C   UNL     1      -1.604   0.345   0.110  1.00  0.00     0.135 A 
HETATM    4  N   UNL     1      -1.370   1.670   0.002  1.00  0.00    -0.216 NA
HETATM    5  C   UNL     1      -2.471   2.431  -0.145  1.00  0.00     0.126 A 
HETATM    6  N   UNL     1      -3.748   2.007  -0.194  1.00  0.00    -0.216 NA
HETATM    7  C   UNL     1      -2.252   3.901  -0.267  1.00  0.00     0.093 C 
HETATM    8  C   UNL     1      -3.941   0.659  -0.082  1.00  0.00     0.131 A 
HETATM    9  C   UNL     1      -2.865  -0.216   0.074  1.00  0.00     0.100 A 
BRANCH   8  10
HETATM   10  N   UNL     1      -5.236   0.130  -0.123  1.00  0.00    -0.362 N 
HETATM   11  C   UNL     1      -5.594  -0.838  -1.164  1.00  0.00     0.154 C 
HETATM   12  C   UNL     1      -6.824  -1.648  -0.746  1.00  0.00     0.292 C 
HETATM   13  N   UNL     1      -7.937  -0.764  -0.378  1.00  0.00     0.093 N 
HETATM   14  C   UNL     1      -7.543   0.096   0.745  1.00  0.00     0.292 C 
HETATM   15  C   UNL     1      -6.338   0.964   0.375  1.00  0.00     0.154 C 
BRANCH  13  16
HETATM   16  C   UNL     1      -9.122  -1.548  -0.032  1.00  0.00     0.298 C 
BRANCH  16  17
HETATM   17  C   UNL     1     -10.302  -0.636   0.262  1.00  0.00     0.194 C 
BRANCH  17  18
HETATM   18  O   UNL     1     -11.433  -1.439   0.575  1.00  0.00    -0.399 OA
HETATM   19  H   UNL     1     -11.213  -1.961   1.366  1.00  0.00     0.209 HD
ENDBRANCH  17  18
ENDBRANCH  16  17
ENDBRANCH  13  16
ENDBRANCH   8  10
ENDBRANCH   1   3
BRANCH   1  20
HETATM   20  C   UNL     1       0.835  -0.273   0.215  1.00  0.00     0.172 A 
HETATM   21  S   UNL     1       1.941  -1.581   0.268  1.00  0.00    -0.045 SA
HETATM   22  C   UNL     1       3.231  -0.456   0.160  1.00  0.00     0.094 A 
HETATM   23  C   UNL     1       2.724   0.825   0.093  1.00  0.00     0.144 A 
HETATM   24  N   UNL     1       1.347   0.931   0.124  1.00  0.00    -0.235 NA
BRANCH  22  25
HETATM   25  C   UNL     1       4.581  -0.910   0.151  1.00  0.00     0.264 C 
HETATM   26  O   UNL     1       4.891  -2.126   0.185  1.00  0.00    -0.267 OA
HETATM   27  N   UNL     1       5.577   0.092   0.060  1.00  0.00    -0.320 N 
HETATM   28  H   UNL     1       5.274   1.060  -0.007  1.00  0.00     0.169 HD
BRANCH  27  29
HETATM   29  C   UNL     1       6.987  -0.040  -0.005  1.00  0.00     0.062 A 
HETATM   30  C   UNL     1       7.712  -0.053   1.177  1.00  0.00    -0.034 A 
HETATM   31  C   UNL     1       9.100  -0.182   1.128  1.00  0.00     0.009 A 
HETATM   32  C   UNL     1       7.050   0.069   2.512  1.00  0.00     0.050 C 
HETATM   33  C   UNL     1       9.746  -0.297  -0.103  1.00  0.00     0.002 A 
HETATM   34  C   UNL     1       9.004  -0.283  -1.284  1.00  0.00     0.026 A 
HETATM   35  C   UNL     1       7.616  -0.154  -1.235  1.00  0.00     0.061 A 
HETATM   36 CL   UNL     1       6.740  -0.141  -2.724  1.00  0.00    -0.082 Cl
ENDBRANCH  27  29
ENDBRANCH  22  25
ENDBRANCH   1  20
TORSDOF 8
