REMARK  6 active torsions:
REMARK  status: ('A' for Active; 'I' for Inactive)
REMARK    1  A    between atoms: S_2  and  C_21 
REMARK    2  A    between atoms: S_2  and  C_23 
REMARK    3  A    between atoms: O_3  and  C_24 
REMARK    4  A    between atoms: N_5  and  C_15 
REMARK    5  A    between atoms: C_8  and  C_11 
REMARK    6  A    between atoms: C_23  and  C_24 
ROOT
HETATM    1  C   UNL     1       2.813  -0.503   0.791  1.00  0.00    -0.043 A 
HETATM    2  C   UNL     1       2.366  -0.113  -0.482  1.00  0.00    -0.017 A 
HETATM    3  C   UNL     1       2.042  -0.247   1.925  1.00  0.00     0.011 A 
HETATM    4  C   UNL     1       1.120   0.545  -0.607  1.00  0.00     0.002 A 
HETATM    5  C   UNL     1       0.357   0.795   0.546  1.00  0.00     0.055 A 
HETATM    6  C   UNL     1       0.816   0.401   1.803  1.00  0.00     0.031 A 
HETATM    7  C   UNL     1       3.129  -0.363  -1.634  1.00  0.00     0.013 A 
HETATM    8  C   UNL     1       0.673   0.935  -1.880  1.00  0.00     0.014 A 
HETATM    9  C   UNL     1       2.670   0.031  -2.892  1.00  0.00     0.001 A 
HETATM   10  C   UNL     1       1.444   0.679  -3.014  1.00  0.00     0.001 A 
ENDROOT
BRANCH   5  11
HETATM   11  N   UNL     1      -0.873   1.436   0.489  1.00  0.00    -0.265 N 
HETATM   12  C   UNL     1      -2.103   0.871   0.336  1.00  0.00     0.197 A 
HETATM   13  N   UNL     1      -3.023   1.809   0.332  1.00  0.00    -0.121 NA
HETATM   14  N   UNL     1      -2.381   3.021   0.487  1.00  0.00    -0.121 NA
HETATM   15  C   UNL     1      -1.094   2.777   0.580  1.00  0.00     0.206 A 
HETATM   16 BR   UNL     1       0.212   4.138   0.809  1.00  0.00    -0.006 Br
BRANCH  12  17
HETATM   17  S   UNL     1      -2.379  -0.825   0.171  1.00  0.00    -0.079 SA
BRANCH  17  18
HETATM   18  C   UNL     1      -4.195  -0.945   0.001  1.00  0.00     0.192 C 
BRANCH  18  19
HETATM   19  C   UNL     1      -4.588  -2.386  -0.152  1.00  0.00     0.149 C 
HETATM   20  O   UNL     1      -3.965  -3.321   0.335  1.00  0.00    -0.649 OA
BRANCH  19  21
HETATM   21  O   UNL     1      -5.722  -2.545  -0.880  1.00  0.00    -0.776 OA
HETATM   22  H   UNL     1      -5.971  -3.490  -0.967  1.00  0.00     0.167 HD
ENDBRANCH  19  21
ENDBRANCH  18  19
ENDBRANCH  17  18
ENDBRANCH  12  17
ENDBRANCH   5  11
BRANCH   1  23
HETATM   23  C   UNL     1       4.121  -1.203   0.991  1.00  0.00     0.019 A 
HETATM   24  C   UNL     1       4.152  -2.520   1.711  1.00  0.00     0.010 A 
HETATM   25  C   UNL     1       4.407  -2.466   0.233  1.00  0.00     0.010 A 
ENDBRANCH   1  23
TORSDOF 6
