REMARK  7 active torsions:
REMARK  status: ('A' for Active; 'I' for Inactive)
REMARK    1  A    between atoms: N_5  and  C_12 
REMARK    2  A    between atoms: N_6  and  C_13 
REMARK       I    between atoms: N_6  and  C_22 
REMARK    3  A    between atoms: N_7  and  C_19 
REMARK    4  A    between atoms: N_7  and  C_30 
REMARK    5  A    between atoms: C_14  and  C_26 
REMARK    6  A    between atoms: C_18  and  C_22 
REMARK    7  A    between atoms: C_32  and  C_33 
ROOT
HETATM    1  C   UNL     1      -2.114  -2.774   0.344  1.00  0.00     0.034 A 
HETATM    2  C   UNL     1      -4.187  -1.536   0.442  1.00  0.00     0.056 A 
HETATM    3  C   UNL     1      -4.897  -2.704   0.165  1.00  0.00    -0.035 A 
HETATM    4  C   UNL     1      -2.795  -1.571   0.531  1.00  0.00     0.047 A 
HETATM    5  C   UNL     1      -2.825  -3.942   0.067  1.00  0.00     0.018 A 
HETATM    6  C   UNL     1      -4.216  -3.907  -0.022  1.00  0.00     0.010 A 
HETATM    7  C   UNL     1      -6.388  -2.695   0.063  1.00  0.00     0.050 C 
ENDROOT
BRANCH   1   8
HETATM    8  C   UNL     1      -0.663  -2.811   0.438  1.00  0.00     0.256 C 
HETATM    9  O   UNL     1      -0.106  -3.875   0.752  1.00  0.00    -0.267 OA
HETATM   10  N   UNL     1       0.000  -1.615   0.132  1.00  0.00    -0.323 N 
HETATM   11  H   UNL     1      -0.552  -0.770   0.024  1.00  0.00     0.169 HD
BRANCH  10  12
HETATM   12  C   UNL     1       1.394  -1.359   0.114  1.00  0.00     0.037 A 
HETATM   13  C   UNL     1       1.852  -0.086   0.406  1.00  0.00     0.059 A 
HETATM   14  C   UNL     1       3.224   0.166   0.387  1.00  0.00     0.042 A 
HETATM   15  C   UNL     1       4.117  -0.860   0.077  1.00  0.00     0.046 A 
HETATM   16  C   UNL     1       3.638  -2.137  -0.215  1.00  0.00     0.052 A 
HETATM   17  C   UNL     1       2.266  -2.388  -0.197  1.00  0.00     0.046 A 
BRANCH  14  18
HETATM   18  N   UNL     1       3.699   1.431   0.678  1.00  0.00    -0.315 N 
HETATM   19  C   UNL     1       2.947   2.533   0.999  1.00  0.00     0.124 A 
HETATM   20  C   UNL     1       3.859   3.543   1.200  1.00  0.00     0.048 A 
HETATM   21  N   UNL     1       5.143   3.096   1.012  1.00  0.00    -0.247 NA
HETATM   22  C   UNL     1       3.600   4.943   1.567  1.00  0.00     0.072 C 
HETATM   23  C   UNL     1       5.013   1.825   0.700  1.00  0.00     0.214 A 
ENDBRANCH  14  18
BRANCH  16  24
HETATM   24  C   UNL     1       4.592  -3.234  -0.547  1.00  0.00     0.417 C 
HETATM   25  F   UNL     1       5.901  -2.845  -0.527  1.00  0.00    -0.166 F 
HETATM   26  F   UNL     1       4.523  -4.296   0.309  1.00  0.00    -0.166 F 
HETATM   27  F   UNL     1       4.383  -3.753  -1.792  1.00  0.00    -0.166 F 
ENDBRANCH  16  24
ENDBRANCH  10  12
ENDBRANCH   1   8
BRANCH   2  28
HETATM   28  N   UNL     1      -4.860  -0.309   0.633  1.00  0.00    -0.188 N 
HETATM   29  H   UNL     1      -5.828  -0.392   0.924  1.00  0.00     0.184 HD
BRANCH  28  30
HETATM   30  C   UNL     1      -4.491   1.027   0.391  1.00  0.00     0.727 A 
HETATM   31  N   UNL     1      -3.263   1.233  -0.128  1.00  0.00    -0.062 NA
HETATM   32  C   UNL     1      -2.943   2.525  -0.348  1.00  0.00     0.089 A 
HETATM   33  C   UNL     1      -3.787   3.582  -0.073  1.00  0.00     0.053 A 
HETATM   34  C   UNL     1      -5.016   3.242   0.455  1.00  0.00     0.139 A 
HETATM   35  N   UNL     1      -5.402   1.973   0.701  1.00  0.00    -0.075 NA
BRANCH  32  36
HETATM   36  C   UNL     1      -1.629   2.744  -0.904  1.00  0.00     0.011 A 
HETATM   37  C   UNL     1      -0.919   3.908  -0.630  1.00  0.00     0.017 A 
HETATM   38  C   UNL     1       0.345   4.091  -1.180  1.00  0.00     0.020 A 
HETATM   39  C   UNL     1       0.851   3.088  -1.990  1.00  0.00     0.116 A 
HETATM   40  N   UNL     1       0.192   1.944  -2.279  1.00  0.00    -0.272 NA
HETATM   41  C   UNL     1      -1.034   1.801  -1.727  1.00  0.00     0.130 A 
ENDBRANCH  32  36
ENDBRANCH  28  30
ENDBRANCH   2  28
TORSDOF 7
